@<TRIPOS>MOLECULE
Molecule Name
 74 81 0 0 0
SMALL
USER_CHARGES

@<TRIPOS>ATOM
      1 C           0.5675    0.5867    2.1431 C.1     1  UNL1        0.0000
      2 C          -3.4855    0.6587   -0.4969 C.1     1  UNL1        0.0000
      3 C          -0.9615   -0.6423   -4.3249 C.1     1  UNL1        0.0000
      4 C           3.0495   -1.0543   -1.6919 C.2     1  UNL1        0.0000
      5 C          -0.7625    0.6587    1.7801 C.2     1  UNL1        0.0000
      6 C          -1.8795    0.9777    2.6621 C.2     1  UNL1        0.0000
      7 C          -2.9735    1.0357    1.9241 C.2     1  UNL1        0.0000
      8 C          -2.5985    0.7027    0.5571 C.2     1  UNL1        0.0000
      9 C          -4.4565    1.2327    2.2641 C.3     1  UNL1        0.0000
     10 C          -1.6705    1.1907    4.1901 C.3     1  UNL1        0.0000
     11 C          -2.0755    0.0547    5.1271 C.3     1  UNL1        0.0000
     12 C          -1.9315    0.3747    6.6311 C.1     1  UNL1        0.0000
     13 O          -1.9435    1.5527    6.9911 O.2     1  UNL1        0.0000
     14 O          -1.8085   -0.6053    7.4061 O.2     1  UNL1        0.0000
     15 C          -3.1915    0.3147   -1.7919 C.2     1  UNL1        0.0000
     16 C          -4.1125    0.2477   -2.9119 C.2     1  UNL1        0.0000
     17 C          -3.3955   -0.0883   -3.9859 C.2     1  UNL1        0.0000
     18 C          -2.0195   -0.2763   -3.5489 C.2     1  UNL1        0.0000
     19 C          -5.6045    0.5807   -2.8069 C.3     1  UNL1        0.0000
     20 C          -3.8455   -0.3263   -5.4389 C.2     1  UNL1        0.0000
     21 C          -5.0365    0.1287   -5.8809 C.2     1  UNL1        0.0000
     22 C           0.3315   -0.8953   -3.9589 C.2     1  UNL1        0.0000
     23 C           1.3845   -1.3203   -4.8509 C.2     1  UNL1        0.0000
     24 C           2.4985   -1.4623   -4.1219 C.2     1  UNL1        0.0000
     25 C           2.1685   -1.1253   -2.7569 C.2     1  UNL1        0.0000
     26 C           1.1455   -1.5283   -6.3669 C.3     1  UNL1        0.0000
     27 C           3.8885   -1.8713   -4.6379 C.2     1  UNL1        0.0000
     28 C           4.5085   -2.9773   -4.2699 C.2     1  UNL1        0.0000
     29 C           2.7265   -0.5413   -0.4209 C.3     1  UNL1        0.0000
     30 C           3.6525   -0.4643    0.6951 C.2     1  UNL1        0.0000
     31 C           2.9745   -0.0473    1.7651 C.2     1  UNL1        0.0000
     32 C           1.6095    0.2077    1.3281 C.2     1  UNL1        0.0000
     33 C           5.1335   -0.9003    0.5701 C.3     1  UNL1        0.0000
     34 C           3.4765    0.2287    3.2091 C.3     1  UNL1        0.0000
     35 C           3.6105    1.6527    3.7241 C.3     1  UNL1        0.0000
     36 C           4.1025    1.7087    5.2451 C.1     1  UNL1        0.0000
     37 O           4.7515    2.7467    5.4141 O.2     1  UNL1        0.0000
     38 O           3.6415    0.7527    5.8511 O.2     1  UNL1        0.0000
     39 N          -1.2365    0.4867    0.4931 N.pl3   1  UNL1        0.0000
     40 N          -1.9235   -0.0273   -2.2039 N.pl3   1  UNL1        0.0000
     41 N           0.8355   -0.8163   -2.7109 N.pl3   1  UNL1        0.0000
     42 N           1.4935   -0.1043   -0.0199 N.pl3   1  UNL1        0.0000
     43 FE         -0.1905    0.0237   -1.1469 Fe      1  UNL1        0.0000
     44 O          -0.4295   -1.6163   -0.9489 O.3     1  UNL1        0.0000
     45 H           0.8106    0.8499    3.1513 H       1  UNL1        0.0000
     46 H          -4.5017    0.9179   -0.2845 H       1  UNL1        0.0000
     47 H          -1.1720   -0.7466   -5.3688 H       1  UNL1        0.0000
     48 H           4.0454   -1.4143   -1.8450 H       1  UNL1        0.0000
     49 H          -5.0317    1.2374    1.3619 H       1  UNL1        0.0000
     50 H          -4.5848    2.1647    2.7737 H       1  UNL1        0.0000
     51 H          -4.7873    0.4334    2.8938 H       1  UNL1        0.0000
     52 H          -2.3158    2.0047    4.4469 H       1  UNL1        0.0000
     53 H          -0.6121    1.2875    4.3138 H       1  UNL1        0.0000
     54 H          -1.3845   -0.7390    4.9336 H       1  UNL1        0.0000
     55 H          -3.1222   -0.0953    4.9630 H       1  UNL1        0.0000
     56 H          -6.0339    0.6068   -3.7866 H       1  UNL1        0.0000
     57 H          -5.7248    1.5355   -2.3392 H       1  UNL1        0.0000
     58 H          -6.0966   -0.1677   -2.2216 H       1  UNL1        0.0000
     59 H          -3.2042   -0.8606   -6.1083 H       1  UNL1        0.0000
     60 H          -5.6841    0.6639   -5.2183 H       1  UNL1        0.0000
     61 H          -5.3333   -0.0457   -6.8940 H       1  UNL1        0.0000
     62 H           2.0530   -1.8560   -6.8294 H       1  UNL1        0.0000
     63 H           0.3852   -2.2675   -6.5100 H       1  UNL1        0.0000
     64 H           0.8331   -0.6052   -6.8087 H       1  UNL1        0.0000
     65 H           4.3801   -1.2237   -5.3335 H       1  UNL1        0.0000
     66 H           4.0434   -3.6457   -3.5757 H       1  UNL1        0.0000
     67 H           5.4761   -3.2053   -4.6658 H       1  UNL1        0.0000
     68 H           5.6064   -0.8354    1.5277 H       1  UNL1        0.0000
     69 H           5.1797   -1.9093    0.2171 H       1  UNL1        0.0000
     70 H           5.6375   -0.2573   -0.1209 H       1  UNL1        0.0000
     71 H           4.4765   -0.1518    3.2191 H       1  UNL1        0.0000
     72 H           2.7304   -0.2111    3.8375 H       1  UNL1        0.0000
     73 H           2.6237    2.0662    3.7153 H       1  UNL1        0.0000
     74 H           4.3861    2.1071    3.1437 H       1  UNL1        0.0000
@<TRIPOS>BOND
     1     1     5    2
     2     1    32    2
     3     1    45    1
     4     2     8    2
     5     2    15    2
     6     2    46    1
     7     3    18    2
     8     3    22    2
     9     3    47    1
    10     4    25    2
    11     4    29   ar
    12     4    48    1
    13     5     6    1
    14     5    39    1
    15     6     7    2
    16     6    10    1
    17     7     8    1
    18     7     9    1
    19     8    39   ar
    20     9    49    1
    21     9    50    1
    22     9    51    1
    23    10    11    1
    24    10    52    1
    25    10    53    1
    26    11    12    1
    27    11    54    1
    28    11    55    1
    29    12    13    2
    30    12    14    2
    31    15    16    1
    32    15    40   ar
    33    16    17    2
    34    16    19    1
    35    17    18    1
    36    17    20    1
    37    18    40   ar
    38    19    56    1
    39    19    57    1
    40    19    58    1
    41    20    21    2
    42    20    59    1
    43    21    60    1
    44    21    61    1
    45    22    23   ar
    46    22    41   ar
    47    23    24    2
    48    23    26    1
    49    24    25   ar
    50    24    27    1
    51    25    41   ar
    52    26    62    1
    53    26    63    1
    54    26    64    1
    55    27    28    2
    56    27    65    1
    57    28    66    1
    58    28    67    1
    59    29    30    1
    60    29    42   ar
    61    30    31    2
    62    30    33    1
    63    31    32    1
    64    31    34    1
    65    32    42    1
    66    33    68    1
    67    33    69    1
    68    33    70    1
    69    34    35    1
    70    34    71    1
    71    34    72    1
    72    35    36    1
    73    35    73    1
    74    35    74    1
    75    36    37    2
    76    36    38    2
    77    39    43    0
    78    40    43    0
    79    41    43    0
    80    42    43    0
    81    43    44    1
