# Title
# Created by GaussView 6.0.16
#

#
#

@<TRIPOS>MOLECULE
Molecule Name
74 81
SMALL
NO_CHARGES


@<TRIPOS>ATOM
1 C1     0.5675     0.5867     2.1431 C
2 C2    -3.4855     0.6587    -0.4969 C
3 C3    -0.9615    -0.6423    -4.3249 C
4 C4     3.0495    -1.0543    -1.6919 C
5 C5    -0.7625     0.6587     1.7801 C
6 C6    -1.8795     0.9777     2.6621 C
7 C7    -2.9735     1.0357     1.9241 C
8 C8    -2.5985     0.7027     0.5571 C
9 C9    -4.4565     1.2327     2.2641 C
10 C10    -1.6705     1.1907     4.1901 C
11 C11    -2.0755     0.0547     5.1271 C
12 C12    -1.9315     0.3747     6.6311 C
13 O13    -1.9435     1.5527     6.9911 O
14 O14    -1.8085    -0.6053     7.4061 O
15 C15    -3.1915     0.3147    -1.7919 C
16 C16    -4.1125     0.2477    -2.9119 C
17 C17    -3.3955    -0.0883    -3.9859 C
18 C18    -2.0195    -0.2763    -3.5489 C
19 C19    -5.6045     0.5807    -2.8069 C
20 C20    -3.8455    -0.3263    -5.4389 C
21 C21    -5.0365     0.1287    -5.8809 C
22 C22     0.3315    -0.8953    -3.9589 C
23 C23     1.3845    -1.3203    -4.8509 C
24 C24     2.4985    -1.4623    -4.1219 C
25 C25     2.1685    -1.1253    -2.7569 C
26 C26     1.1455    -1.5283    -6.3669 C
27 C27     3.8885    -1.8713    -4.6379 C
28 C28     4.5085    -2.9773    -4.2699 C
29 C29     2.7265    -0.5413    -0.4209 C
30 C30     3.6525    -0.4643     0.6951 C
31 C31     2.9745    -0.0473     1.7651 C
32 C32     1.6095     0.2077     1.3281 C
33 C33     5.1335    -0.9003     0.5701 C
34 C34     3.4765     0.2287     3.2091 C
35 C35     3.6105     1.6527     3.7241 C
36 C36     4.1025     1.7087     5.2451 C
37 O37     4.7515     2.7467     5.4141 O
38 O38     3.6415     0.7527     5.8511 O
39 N39    -1.2365     0.4867     0.4931 N
40 N40    -1.9235    -0.0273    -2.2039 N
41 N41     0.8355    -0.8163    -2.7109 N
42 N42     1.4935    -0.1043    -0.0199 N
43 Fe43    -0.1905     0.0237    -1.1469 Fe
44 O44    -0.4295    -1.6163    -0.9489 O
45 H45     0.8106     0.8499     3.1513 H
46 H46    -4.5017     0.9179    -0.2845 H
47 H47    -1.1720    -0.7466    -5.3688 H
48 H48     4.0454    -1.4143    -1.8450 H
49 H49    -5.0317     1.2374     1.3619 H
50 H50    -4.5848     2.1647     2.7737 H
51 H51    -4.7873     0.4334     2.8938 H
52 H52    -2.3158     2.0047     4.4469 H
53 H53    -0.6121     1.2875     4.3138 H
54 H54    -1.3845    -0.7390     4.9336 H
55 H55    -3.1222    -0.0953     4.9630 H
56 H56    -6.0339     0.6068    -3.7866 H
57 H57    -5.7248     1.5355    -2.3392 H
58 H58    -6.0966    -0.1677    -2.2216 H
59 H59    -3.2042    -0.8606    -6.1083 H
60 H60    -5.6841     0.6639    -5.2183 H
61 H61    -5.3333    -0.0457    -6.8940 H
62 H62     2.0530    -1.8560    -6.8294 H
63 H63     0.3852    -2.2675    -6.5100 H
64 H64     0.8331    -0.6052    -6.8087 H
65 H65     4.3801    -1.2237    -5.3335 H
66 H66     4.0434    -3.6457    -3.5757 H
67 H67     5.4761    -3.2053    -4.6658 H
68 H68     5.6064    -0.8354     1.5277 H
69 H69     5.1797    -1.9093     0.2171 H
70 H70     5.6375    -0.2573    -0.1209 H
71 H71     4.4765    -0.1518     3.2191 H
72 H72     2.7304    -0.2111     3.8375 H
73 H73     2.6237     2.0662     3.7153 H
74 H74     4.3861     2.1071     3.1437 H
@<TRIPOS>BOND
1 1 5 2
2 1 32 2
3 1 45 1
4 2 8 2
5 2 15 2
6 2 46 1
7 3 18 2
8 3 22 2
9 3 47 1
10 4 25 2
11 4 29 Ar
12 4 48 1
13 5 6 1
14 5 39 1
15 6 7 2
16 6 10 1
17 7 8 1
18 7 9 1
19 8 39 Ar
20 9 49 1
21 9 50 1
22 9 51 1
23 10 11 1
24 10 52 1
25 10 53 1
26 11 12 1
27 11 54 1
28 11 55 1
29 12 13 2
30 12 14 2
31 15 16 1
32 15 40 Ar
33 16 17 2
34 16 19 1
35 17 18 1
36 17 20 1
37 18 40 Ar
38 19 56 1
39 19 57 1
40 19 58 1
41 20 21 2
42 20 59 1
43 21 60 1
44 21 61 1
45 22 23 Ar
46 22 41 Ar
47 23 24 2
48 23 26 1
49 24 25 Ar
50 24 27 1
51 25 41 Ar
52 26 62 1
53 26 63 1
54 26 64 1
55 27 28 2
56 27 65 1
57 28 66 1
58 28 67 1
59 29 30 1
60 29 42 Ar
61 30 31 2
62 30 33 1
63 31 32 1
64 31 34 1
65 32 42 1
66 33 68 1
67 33 69 1
68 33 70 1
69 34 35 1
70 34 71 1
71 34 72 1
72 35 36 1
73 35 73 1
74 35 74 1
75 36 37 2
76 36 38 2
77 39 43 Wk
78 40 43 Wk
79 41 43 Wk
80 42 43 Wk
81 43 44 1
